Version 4
SHEET 1 880 680
WIRE 48 32 -96 32
WIRE 48 80 48 32
WIRE -96 144 -96 32
WIRE 48 192 48 160
WIRE 144 192 48 192
WIRE 352 192 224 192
WIRE 48 240 48 192
WIRE 352 240 352 192
WIRE -96 336 -96 224
WIRE 48 336 48 320
WIRE 48 336 -96 336
WIRE 352 336 352 320
WIRE 352 336 48 336
WIRE 48 368 48 336
FLAG 48 368 0
SYMBOL res 32 64 R0
SYMATTR InstName R1
SYMATTR Value 10k
SYMBOL res 32 224 R0
SYMATTR InstName R2
SYMATTR Value 10k
SYMBOL res 240 176 R90
WINDOW 0 0 56 VBottom 2
WINDOW 3 32 56 VTop 2
SYMATTR InstName R3
SYMATTR Value 100
SYMBOL voltage -96 128 R0
WINDOW 123 0 0 Left 0
WINDOW 39 0 0 Left 0
SYMATTR InstName V1
SYMATTR Value 1
SYMBOL voltage 352 224 R0
WINDOW 123 0 0 Left 0
WINDOW 39 0 0 Left 0
SYMATTR InstName V2
SYMATTR Value PULSE(0 1 1 0 1 1 2 1)
TEXT -130 392 Left 2 !.tran 0 2 0
